
 *******************************************************************************

         NASA-GLENN CHEMICAL EQUILIBRIUM PROGRAM CEA2, MAY 21, 2004
                   BY  BONNIE MCBRIDE AND SANFORD GORDON
      REFS: NASA RP-1311, PART I, 1994 AND NASA RP-1311, PART II, 1996

 *******************************************************************************



 problem    %fuel=100,99.5,99,98.5,98,97.5,97,96.5,96,
       hp   p,bar=3,  t,k=3800
 react
   fuel=CO2 wt=13  t,k=3000
   fuel=H2O wt=27  t,k=3000
   fuel=AL2O3(a) wt=2  t,k=2200
   fuel=HCL wt=18  t,k=3000
   fuel=H2 wt=19  t,k=3000
   fuel=CO wt=13  t,k=3000
   fuel=N2 wt=8  t,k=3000
   oxid=H2O(L) wt=100  t,k=300
 output  short
     plot rho
  end




         THERMODYNAMIC EQUILIBRIUM COMBUSTION PROPERTIES AT ASSIGNED

                                   PRESSURES

 CASE =                

             REACTANT                    WT FRACTION      ENERGY      TEMP
                                          (SEE NOTE)     KJ/KG-MOL      K  
 FUEL        CO2                          0.1300000   -240694.167   3000.000
 FUEL        H2O                          0.2700000   -114167.682   3000.000
 FUEL        AL2O3(a)                     0.0200000  -1436690.715   2200.000
 FUEL        HCL                          0.1800000      -618.450   3000.000
 FUEL        H2                           0.1900000     88730.698   3000.000
 FUEL        CO                           0.1300000    -17006.128   3000.000
 FUEL        N2                           0.0800000     92712.991   3000.000
 OXIDANT     H2O(L)                       1.0000000   -285690.685    300.000

 O/F=    0.00000  %FUEL=100.000000  R,EQ.RATIO= 4.458622  PHI,EQ.RATIO= 0.000000

 THERMODYNAMIC PROPERTIES

 P, BAR            3.0000
 T, K             2745.10
 RHO, KG/CU M    1.0347-1
 H, KJ/KG         5841.94
 U, KJ/KG         2942.64
 G, KJ/KG        -70156.5
 S, KJ/(KG)(K)    27.6851

 M, (1/n)           7.872
 MW, MOL WT         7.868
 (dLV/dLP)t      -1.00949
 (dLV/dLT)p        1.2009
 Cp, KJ/(KG)(K)    9.5905
 GAMMAs            1.1755
 SON VEL,M/SEC     1846.1

 MOLE FRACTIONS

 *AL              0.00002
 ALCL             0.00049
 *ALO             0.00002
 ALOCL            0.00002
 ALOH             0.00143
 ALOHCL           0.00002
 ALOHCL2          0.00001
 AL(OH)2          0.00002
 AL(OH)2CL        0.00001
 AL(OH)3          0.00001
 AL2O             0.00001
 *CO              0.05808
 *CO2             0.00168
 *CL              0.00118
 *H               0.03258
 HCL              0.03711
 *H2              0.70336
 H2O              0.13903
 *NO              0.00003
 *N2              0.02246
 *O               0.00005
 *OH              0.00188
 AL2O3(L)         0.00052

  * THERMODYNAMIC PROPERTIES FITTED TO 20000.K

 NOTE. WEIGHT FRACTION OF FUEL IN TOTAL FUELS AND OF OXIDANT IN TOTAL OXIDANTS









         THERMODYNAMIC EQUILIBRIUM COMBUSTION PROPERTIES AT ASSIGNED

                                   PRESSURES

 CASE =                

             REACTANT                    WT FRACTION      ENERGY      TEMP
                                          (SEE NOTE)     KJ/KG-MOL      K  
 FUEL        CO2                          0.1300000   -240694.167   3000.000
 FUEL        H2O                          0.2700000   -114167.682   3000.000
 FUEL        AL2O3(a)                     0.0200000  -1436690.715   2200.000
 FUEL        HCL                          0.1800000      -618.450   3000.000
 FUEL        H2                           0.1900000     88730.698   3000.000
 FUEL        CO                           0.1300000    -17006.128   3000.000
 FUEL        N2                           0.0800000     92712.991   3000.000
 OXIDANT     H2O(L)                       1.0000000   -285690.685    300.000

 O/F=    0.00503  %FUEL= 99.500000  R,EQ.RATIO= 4.425208  PHI,EQ.RATIO= 0.000000

 THERMODYNAMIC PROPERTIES

 P, BAR            3.0000
 T, K             2740.40
 RHO, KG/CU M    1.0398-1
 H, KJ/KG         5733.44
 U, KJ/KG         2848.17
 G, KJ/KG        -69931.8
 S, KJ/(KG)(K)    27.6110

 M, (1/n)           7.897
 MW, MOL WT         7.893
 (dLV/dLP)t      -1.00931
 (dLV/dLT)p        1.1973
 Cp, KJ/(KG)(K)    9.4846
 GAMMAs            1.1762
 SON VEL,M/SEC     1842.2

 MOLE FRACTIONS

 *AL              0.00002
 ALCL             0.00046
 *ALO             0.00002
 ALOCL            0.00002
 ALOH             0.00137
 ALOHCL           0.00002
 ALOHCL2          0.00001
 AL(OH)2          0.00002
 AL(OH)2CL        0.00001
 AL(OH)3          0.00001
 AL2O             0.00001
 *CO              0.05794
 *CO2             0.00170
 *CL              0.00116
 *H               0.03200
 HCL              0.03708
 *H2              0.70236
 H2O              0.14087
 *NO              0.00002
 *N2              0.02241
 *O               0.00005
 *OH              0.00186
 AL2O3(L)         0.00056

  * THERMODYNAMIC PROPERTIES FITTED TO 20000.K

 NOTE. WEIGHT FRACTION OF FUEL IN TOTAL FUELS AND OF OXIDANT IN TOTAL OXIDANTS









         THERMODYNAMIC EQUILIBRIUM COMBUSTION PROPERTIES AT ASSIGNED

                                   PRESSURES

 CASE =                

             REACTANT                    WT FRACTION      ENERGY      TEMP
                                          (SEE NOTE)     KJ/KG-MOL      K  
 FUEL        CO2                          0.1300000   -240694.167   3000.000
 FUEL        H2O                          0.2700000   -114167.682   3000.000
 FUEL        AL2O3(a)                     0.0200000  -1436690.715   2200.000
 FUEL        HCL                          0.1800000      -618.450   3000.000
 FUEL        H2                           0.1900000     88730.698   3000.000
 FUEL        CO                           0.1300000    -17006.128   3000.000
 FUEL        N2                           0.0800000     92712.991   3000.000
 OXIDANT     H2O(L)                       1.0000000   -285690.685    300.000

 O/F=    0.01010  %FUEL= 99.000000  R,EQ.RATIO= 4.392105  PHI,EQ.RATIO= 0.000000

 THERMODYNAMIC PROPERTIES

 P, BAR            3.0000
 T, K             2735.63
 RHO, KG/CU M    1.0449-1
 H, KJ/KG         5624.94
 U, KJ/KG         2753.73
 G, KJ/KG        -69705.7
 S, KJ/(KG)(K)    27.5369

 M, (1/n)           7.922
 MW, MOL WT         7.917
 (dLV/dLP)t      -1.00914
 (dLV/dLT)p        1.1938
 Cp, KJ/(KG)(K)    9.3795
 GAMMAs            1.1769
 SON VEL,M/SEC     1838.3

 MOLE FRACTIONS

 *AL              0.00002
 ALCL             0.00044
 *ALO             0.00001
 ALOCL            0.00001
 ALOH             0.00132
 ALOHCL           0.00002
 ALOHCL2          0.00001
 AL(OH)2          0.00002
 AL(OH)2CL        0.00001
 AL(OH)3          0.00001
 *CO              0.05780
 *CO2             0.00173
 *CL              0.00114
 *H               0.03142
 HCL              0.03705
 *H2              0.70135
 H2O              0.14273
 *NO              0.00002
 *N2              0.02237
 *O               0.00005
 *OH              0.00185
 AL2O3(L)         0.00060

  * THERMODYNAMIC PROPERTIES FITTED TO 20000.K

 NOTE. WEIGHT FRACTION OF FUEL IN TOTAL FUELS AND OF OXIDANT IN TOTAL OXIDANTS









         THERMODYNAMIC EQUILIBRIUM COMBUSTION PROPERTIES AT ASSIGNED

                                   PRESSURES

 CASE =                

             REACTANT                    WT FRACTION      ENERGY      TEMP
                                          (SEE NOTE)     KJ/KG-MOL      K  
 FUEL        CO2                          0.1300000   -240694.167   3000.000
 FUEL        H2O                          0.2700000   -114167.682   3000.000
 FUEL        AL2O3(a)                     0.0200000  -1436690.715   2200.000
 FUEL        HCL                          0.1800000      -618.450   3000.000
 FUEL        H2                           0.1900000     88730.698   3000.000
 FUEL        CO                           0.1300000    -17006.128   3000.000
 FUEL        N2                           0.0800000     92712.991   3000.000
 OXIDANT     H2O(L)                       1.0000000   -285690.685    300.000

 O/F=    0.01523  %FUEL= 98.500000  R,EQ.RATIO= 4.359310  PHI,EQ.RATIO= 0.000000

 THERMODYNAMIC PROPERTIES

 P, BAR            3.0000
 T, K             2730.78
 RHO, KG/CU M    1.0500-1
 H, KJ/KG         5516.43
 U, KJ/KG         2659.32
 G, KJ/KG        -69478.2
 S, KJ/(KG)(K)    27.4627

 M, (1/n)           7.947
 MW, MOL WT         7.942
 (dLV/dLP)t      -1.00896
 (dLV/dLT)p        1.1902
 Cp, KJ/(KG)(K)    9.2754
 GAMMAs            1.1776
 SON VEL,M/SEC     1834.3

 MOLE FRACTIONS

 *AL              0.00002
 ALCL             0.00042
 *ALO             0.00001
 ALOCL            0.00001
 ALOH             0.00127
 ALOHCL           0.00002
 ALOHCL2          0.00001
 AL(OH)2          0.00002
 AL(OH)2CL        0.00001
 AL(OH)3          0.00001
 *CO              0.05766
 *CO2             0.00175
 *CL              0.00112
 *H               0.03084
 HCL              0.03702
 *H2              0.70033
 H2O              0.14460
 *NO              0.00002
 *N2              0.02233
 *O               0.00005
 *OH              0.00183
 AL2O3(L)         0.00063

  * THERMODYNAMIC PROPERTIES FITTED TO 20000.K

 NOTE. WEIGHT FRACTION OF FUEL IN TOTAL FUELS AND OF OXIDANT IN TOTAL OXIDANTS









         THERMODYNAMIC EQUILIBRIUM COMBUSTION PROPERTIES AT ASSIGNED

                                   PRESSURES

 CASE =                

             REACTANT                    WT FRACTION      ENERGY      TEMP
                                          (SEE NOTE)     KJ/KG-MOL      K  
 FUEL        CO2                          0.1300000   -240694.167   3000.000
 FUEL        H2O                          0.2700000   -114167.682   3000.000
 FUEL        AL2O3(a)                     0.0200000  -1436690.715   2200.000
 FUEL        HCL                          0.1800000      -618.450   3000.000
 FUEL        H2                           0.1900000     88730.698   3000.000
 FUEL        CO                           0.1300000    -17006.128   3000.000
 FUEL        N2                           0.0800000     92712.991   3000.000
 OXIDANT     H2O(L)                       1.0000000   -285690.685    300.000

 O/F=    0.02041  %FUEL= 98.000000  R,EQ.RATIO= 4.326817  PHI,EQ.RATIO= 0.000000

 THERMODYNAMIC PROPERTIES

 P, BAR            3.0000
 T, K             2725.86
 RHO, KG/CU M    1.0552-1
 H, KJ/KG         5407.93
 U, KJ/KG         2564.95
 G, KJ/KG        -69249.3
 S, KJ/(KG)(K)    27.3885

 M, (1/n)           7.972
 MW, MOL WT         7.967
 (dLV/dLP)t      -1.00879
 (dLV/dLT)p        1.1867
 Cp, KJ/(KG)(K)    9.1721
 GAMMAs            1.1783
 SON VEL,M/SEC     1830.3

 MOLE FRACTIONS

 *AL              0.00002
 ALCL             0.00039
 *ALO             0.00001
 ALOCL            0.00001
 ALOH             0.00122
 ALOHCL           0.00002
 ALOHCL2          0.00001
 AL(OH)2          0.00002
 AL(OH)2CL        0.00001
 AL(OH)3          0.00001
 *CO              0.05752
 *CO2             0.00178
 *CL              0.00110
 *H               0.03026
 HCL              0.03699
 *H2              0.69929
 H2O              0.14649
 *NO              0.00002
 *N2              0.02228
 *O               0.00005
 *OH              0.00182
 AL2O3(L)         0.00067

  * THERMODYNAMIC PROPERTIES FITTED TO 20000.K

 NOTE. WEIGHT FRACTION OF FUEL IN TOTAL FUELS AND OF OXIDANT IN TOTAL OXIDANTS









         THERMODYNAMIC EQUILIBRIUM COMBUSTION PROPERTIES AT ASSIGNED

                                   PRESSURES

 CASE =                

             REACTANT                    WT FRACTION      ENERGY      TEMP
                                          (SEE NOTE)     KJ/KG-MOL      K  
 FUEL        CO2                          0.1300000   -240694.167   3000.000
 FUEL        H2O                          0.2700000   -114167.682   3000.000
 FUEL        AL2O3(a)                     0.0200000  -1436690.715   2200.000
 FUEL        HCL                          0.1800000      -618.450   3000.000
 FUEL        H2                           0.1900000     88730.698   3000.000
 FUEL        CO                           0.1300000    -17006.128   3000.000
 FUEL        N2                           0.0800000     92712.991   3000.000
 OXIDANT     H2O(L)                       1.0000000   -285690.685    300.000

 O/F=    0.02564  %FUEL= 97.500000  R,EQ.RATIO= 4.294624  PHI,EQ.RATIO= 0.000000

 THERMODYNAMIC PROPERTIES

 P, BAR            3.0000
 T, K             2720.87
 RHO, KG/CU M    1.0605-1
 H, KJ/KG         5299.43
 U, KJ/KG         2470.61
 G, KJ/KG        -69019.0
 S, KJ/(KG)(K)    27.3142

 M, (1/n)           7.997
 MW, MOL WT         7.992
 (dLV/dLP)t      -1.00861
 (dLV/dLT)p        1.1832
 Cp, KJ/(KG)(K)    9.0697
 GAMMAs            1.1790
 SON VEL,M/SEC     1826.3

 MOLE FRACTIONS

 *AL              0.00001
 ALCL             0.00037
 *ALO             0.00001
 ALOCL            0.00001
 ALOH             0.00117
 ALOHCL           0.00002
 ALOHCL2          0.00001
 AL(OH)2          0.00002
 AL(OH)2CL        0.00001
 AL(OH)3          0.00001
 *CO              0.05738
 *CO2             0.00180
 *CL              0.00108
 *H               0.02968
 HCL              0.03695
 *H2              0.69825
 H2O              0.14839
 *NO              0.00002
 *N2              0.02224
 *O               0.00004
 *OH              0.00180
 AL2O3(L)         0.00070

  * THERMODYNAMIC PROPERTIES FITTED TO 20000.K

 NOTE. WEIGHT FRACTION OF FUEL IN TOTAL FUELS AND OF OXIDANT IN TOTAL OXIDANTS









         THERMODYNAMIC EQUILIBRIUM COMBUSTION PROPERTIES AT ASSIGNED

                                   PRESSURES

 CASE =                

             REACTANT                    WT FRACTION      ENERGY      TEMP
                                          (SEE NOTE)     KJ/KG-MOL      K  
 FUEL        CO2                          0.1300000   -240694.167   3000.000
 FUEL        H2O                          0.2700000   -114167.682   3000.000
 FUEL        AL2O3(a)                     0.0200000  -1436690.715   2200.000
 FUEL        HCL                          0.1800000      -618.450   3000.000
 FUEL        H2                           0.1900000     88730.698   3000.000
 FUEL        CO                           0.1300000    -17006.128   3000.000
 FUEL        N2                           0.0800000     92712.991   3000.000
 OXIDANT     H2O(L)                       1.0000000   -285690.685    300.000

 O/F=    0.03093  %FUEL= 97.000000  R,EQ.RATIO= 4.262725  PHI,EQ.RATIO= 0.000000

 THERMODYNAMIC PROPERTIES

 P, BAR            3.0000
 T, K             2715.81
 RHO, KG/CU M    1.0659-1
 H, KJ/KG         5190.93
 U, KJ/KG         2376.31
 G, KJ/KG        -68787.2
 S, KJ/(KG)(K)    27.2398

 M, (1/n)           8.023
 MW, MOL WT         8.017
 (dLV/dLP)t      -1.00844
 (dLV/dLT)p        1.1797
 Cp, KJ/(KG)(K)    8.9682
 GAMMAs            1.1798
 SON VEL,M/SEC     1822.3

 MOLE FRACTIONS

 *AL              0.00001
 ALCL             0.00035
 *ALO             0.00001
 ALOCL            0.00001
 ALOH             0.00112
 ALOHCL           0.00001
 ALOHCL2          0.00001
 AL(OH)2          0.00002
 AL(OH)2CL        0.00001
 AL(OH)3          0.00001
 *CO              0.05724
 *CO2             0.00183
 *CL              0.00106
 *H               0.02911
 HCL              0.03692
 *H2              0.69719
 H2O              0.15031
 *NO              0.00002
 *N2              0.02219
 *O               0.00004
 *OH              0.00178
 AL2O3(L)         0.00074

  * THERMODYNAMIC PROPERTIES FITTED TO 20000.K

 NOTE. WEIGHT FRACTION OF FUEL IN TOTAL FUELS AND OF OXIDANT IN TOTAL OXIDANTS









         THERMODYNAMIC EQUILIBRIUM COMBUSTION PROPERTIES AT ASSIGNED

                                   PRESSURES

 CASE =                

             REACTANT                    WT FRACTION      ENERGY      TEMP
                                          (SEE NOTE)     KJ/KG-MOL      K  
 FUEL        CO2                          0.1300000   -240694.167   3000.000
 FUEL        H2O                          0.2700000   -114167.682   3000.000
 FUEL        AL2O3(a)                     0.0200000  -1436690.715   2200.000
 FUEL        HCL                          0.1800000      -618.450   3000.000
 FUEL        H2                           0.1900000     88730.698   3000.000
 FUEL        CO                           0.1300000    -17006.128   3000.000
 FUEL        N2                           0.0800000     92712.991   3000.000
 OXIDANT     H2O(L)                       1.0000000   -285690.685    300.000

 O/F=    0.03627  %FUEL= 96.500000  R,EQ.RATIO= 4.231117  PHI,EQ.RATIO= 0.000000

 THERMODYNAMIC PROPERTIES

 P, BAR            3.0000
 T, K             2710.67
 RHO, KG/CU M    1.0713-1
 H, KJ/KG         5082.43
 U, KJ/KG         2282.04
 G, KJ/KG        -68553.9
 S, KJ/(KG)(K)    27.1654

 M, (1/n)           8.048
 MW, MOL WT         8.042
 (dLV/dLP)t      -1.00827
 (dLV/dLT)p        1.1762
 Cp, KJ/(KG)(K)    8.8676
 GAMMAs            1.1805
 SON VEL,M/SEC     1818.2

 MOLE FRACTIONS

 *AL              0.00001
 ALCL             0.00034
 *ALO             0.00001
 ALOCL            0.00001
 ALOH             0.00107
 ALOHCL           0.00001
 ALOHCL2          0.00001
 AL(OH)2          0.00001
 AL(OH)2CL        0.00001
 AL(OH)3          0.00001
 *CO              0.05709
 *CO2             0.00185
 *CL              0.00104
 *H               0.02853
 HCL              0.03688
 *H2              0.69611
 H2O              0.15224
 *NO              0.00002
 *N2              0.02215
 *O               0.00004
 *OH              0.00176
 AL2O3(L)         0.00077

  * THERMODYNAMIC PROPERTIES FITTED TO 20000.K

 NOTE. WEIGHT FRACTION OF FUEL IN TOTAL FUELS AND OF OXIDANT IN TOTAL OXIDANTS









         THERMODYNAMIC EQUILIBRIUM COMBUSTION PROPERTIES AT ASSIGNED

                                   PRESSURES

 CASE =                

             REACTANT                    WT FRACTION      ENERGY      TEMP
                                          (SEE NOTE)     KJ/KG-MOL      K  
 FUEL        CO2                          0.1300000   -240694.167   3000.000
 FUEL        H2O                          0.2700000   -114167.682   3000.000
 FUEL        AL2O3(a)                     0.0200000  -1436690.715   2200.000
 FUEL        HCL                          0.1800000      -618.450   3000.000
 FUEL        H2                           0.1900000     88730.698   3000.000
 FUEL        CO                           0.1300000    -17006.128   3000.000
 FUEL        N2                           0.0800000     92712.991   3000.000
 OXIDANT     H2O(L)                       1.0000000   -285690.685    300.000

 O/F=    0.04167  %FUEL= 96.000000  R,EQ.RATIO= 4.199796  PHI,EQ.RATIO= 0.000000

 THERMODYNAMIC PROPERTIES

 P, BAR            3.0000
 T, K             2705.45
 RHO, KG/CU M    1.0768-1
 H, KJ/KG         4973.93
 U, KJ/KG         2187.81
 G, KJ/KG        -68319.2
 S, KJ/(KG)(K)    27.0909

 M, (1/n)           8.074
 MW, MOL WT         8.067
 (dLV/dLP)t      -1.00809
 (dLV/dLT)p        1.1727
 Cp, KJ/(KG)(K)    8.7679
 GAMMAs            1.1812
 SON VEL,M/SEC     1814.1

 MOLE FRACTIONS

 *AL              0.00001
 ALCL             0.00032
 *ALO             0.00001
 ALOCL            0.00001
 ALOH             0.00102
 ALOHCL           0.00001
 ALOHCL2          0.00001
 AL(OH)2          0.00001
 AL(OH)2CL        0.00001
 AL(OH)3          0.00001
 *CO              0.05694
 *CO2             0.00188
 *CL              0.00102
 *H               0.02795
 HCL              0.03684
 *H2              0.69502
 H2O              0.15418
 *NO              0.00002
 *N2              0.02210
 *O               0.00004
 *OH              0.00174
 AL2O3(L)         0.00080

  * THERMODYNAMIC PROPERTIES FITTED TO 20000.K

 NOTE. WEIGHT FRACTION OF FUEL IN TOTAL FUELS AND OF OXIDANT IN TOTAL OXIDANTS



