
 *******************************************************************************

         NASA-GLENN CHEMICAL EQUILIBRIUM PROGRAM CEA2, MAY 21, 2004
                   BY  BONNIE MCBRIDE AND SANFORD GORDON
      REFS: NASA RP-1311, PART I, 1994 AND NASA RP-1311, PART II, 1996

 *******************************************************************************



 problem    o/f=7,
     rocket  equilibrium  frozen  nfz=2
   p,psia=300,
 react
   fuel=(CH2)x(cr) wt=100  t,k=298
   oxid=N2O wt=100  t,k=298
 output  short
     plot p t rho m mw cp gam son pip mach aeat cf ivac isp
 end





              THEORETICAL ROCKET PERFORMANCE ASSUMING EQUILIBRIUM

           COMPOSITION DURING EXPANSION FROM INFINITE AREA COMBUSTOR

 Pin =   300.0 PSIA
 CASE =                

             REACTANT                    WT FRACTION      ENERGY      TEMP
                                          (SEE NOTE)     KJ/KG-MOL      K  
 FUEL        (CH2)x(cr)                   1.0000000    -25600.000    298.000
 OXIDANT     N2O                          1.0000000     81594.206    298.000

 O/F=    7.00000  %FUEL= 12.500000  R,EQ.RATIO= 1.344777  PHI,EQ.RATIO= 1.344777

                 CHAMBER   THROAT
 Pinf/P            1.0000   1.7444
 P, BAR            20.684   11.858
 T, K             3271.96  3072.68
 RHO, KG/CU M    1.9451 0 1.2008 0
 H, KJ/KG         1394.00   823.67
 U, KJ/KG          330.59  -163.77
 G, KJ/KG        -32118.8 -30648.0
 S, KJ/(KG)(K)    10.2424  10.2424

 M, (1/n)          25.583   25.873
 (dLV/dLP)t      -1.01812 -1.01326
 (dLV/dLT)p        1.3560   1.2791
 Cp, KJ/(KG)(K)    3.9632   3.5625
 GAMMAs            1.1530   1.1552
 SON VEL,M/SEC     1107.3   1068.0
 MACH NUMBER        0.000    1.000

 PERFORMANCE PARAMETERS

 Ae/At                     1.00000
 CSTAR, M/SEC               1612.8
 CF                         0.6622
 Ivac, M/SEC                1992.6
 Isp, M/SEC                 1068.0


 MOLE FRACTIONS

 *CO              0.15867  0.15247
 *CO2             0.06931  0.07810
 *H               0.01616  0.01203
 HO2              0.00001  0.00001
 *H2              0.04662  0.04434
 H2O              0.16118  0.17140
 *N               0.00001  0.00000
 *NO              0.00888  0.00584
 *N2              0.50414  0.51144
 *O               0.00461  0.00267
 *OH              0.02418  0.01763
 *O2              0.00620  0.00407

  * THERMODYNAMIC PROPERTIES FITTED TO 20000.K

 NOTE. WEIGHT FRACTION OF FUEL IN TOTAL FUELS AND OF OXIDANT IN TOTAL OXIDANTS





           THEORETICAL ROCKET PERFORMANCE ASSUMING FROZEN COMPOSITION
                                 AFTER POINT 2

 Pin =   300.0 PSIA
 CASE =                

             REACTANT                    WT FRACTION      ENERGY      TEMP
                                          (SEE NOTE)     KJ/KG-MOL      K  
 FUEL        (CH2)x(cr)                   1.0000000    -25600.000    298.000
 OXIDANT     N2O                          1.0000000     81594.206    298.000

 O/F=    7.00000  %FUEL= 12.500000  R,EQ.RATIO= 1.344777  PHI,EQ.RATIO= 1.344777

                 CHAMBER   THROAT
 Pinf/P            1.0000   1.7444
 P, BAR            20.684   11.858
 T, K             3271.96  3072.68
 RHO, KG/CU M    1.9451 0 1.2008 0
 H, KJ/KG         1394.00   823.67
 U, KJ/KG          330.59  -163.77
 G, KJ/KG        -32118.8 -30648.0
 S, KJ/(KG)(K)    10.2424  10.2424

 M, (1/n)          25.583   25.873
 Cp, KJ/(KG)(K)    3.9632   3.5625
 GAMMAs            1.1530   1.1552
 SON VEL,M/SEC     1107.3   1068.0
 MACH NUMBER        0.000    1.000

 PERFORMANCE PARAMETERS

 Ae/At                     1.00000
 CSTAR, M/SEC               1612.8
 CF                         0.6622
 Ivac, M/SEC                1992.6
 Isp, M/SEC                 1068.0

 MOLE FRACTIONS

 *CO             0.16047   *CO2            0.07010   *H              0.01635
 HO2             0.00001   *H2             0.04715   H2O             0.16301
 *N              0.00001   *NO             0.00898   *N2             0.50986
 *O              0.00466   *OH             0.02445   *O2             0.00628

  * THERMODYNAMIC PROPERTIES FITTED TO 20000.K

 NOTE. WEIGHT FRACTION OF FUEL IN TOTAL FUELS AND OF OXIDANT IN TOTAL OXIDANTS



