
 *******************************************************************************

         NASA-GLENN CHEMICAL EQUILIBRIUM PROGRAM CEA2, MAY 21, 2004
                   BY  BONNIE MCBRIDE AND SANFORD GORDON
      REFS: NASA RP-1311, PART I, 1994 AND NASA RP-1311, PART II, 1996

 *******************************************************************************



 problem    o/f=7,
       rocket  equilibrium
   p,psia=450,
   sup,ae/at=5,
 react
   fuel=(CH2)x(cr) wt=100 t,k=298
   oxid=N2O wt=100
 output
      siunits short
     plot p t rho cp gam son pip mach aeat ivac isp m mw
 end





              THEORETICAL ROCKET PERFORMANCE ASSUMING EQUILIBRIUM

           COMPOSITION DURING EXPANSION FROM INFINITE AREA COMBUSTOR

 Pin =   450.0 PSIA
 CASE =                

             REACTANT                    WT FRACTION      ENERGY      TEMP
                                          (SEE NOTE)     KJ/KG-MOL      K  
 FUEL        (CH2)x(cr)                   1.0000000    -25600.000    298.000
 OXIDANT     N2O                          1.0000000         0.000      0.000

 O/F=    7.00000  %FUEL= 12.500000  R,EQ.RATIO= 1.344777  PHI,EQ.RATIO= 1.344777

                 CHAMBER   THROAT     EXIT
 Pinf/P            1.0000   1.7900   34.814
 P, BAR            31.026   17.333  0.89121
 T, K             2709.09  2443.86  1358.87
 RHO, KG/CU M    3.6421 0 2.2600 0 2.0921-1
 H, KJ/KG         -228.14  -699.23 -2427.17
 U, KJ/KG        -1080.02 -1466.17 -2853.16
 G, KJ/KG        -26171.1 -24102.2 -15440.0
 S, KJ/(KG)(K)     9.5762   9.5762   9.5762

 M, (1/n)          26.441   26.494   26.522
 (dLV/dLP)t      -1.00164 -1.00055 -1.00000
 (dLV/dLT)p        1.0396   1.0144   1.0000
 Cp, KJ/(KG)(K)    1.9334   1.7312   1.5368
 GAMMAs            1.2109   1.2285   1.2563
 SON VEL,M/SEC     1015.6    970.7    731.5
 MACH NUMBER        0.000    1.000    2.867

 PERFORMANCE PARAMETERS

 Ae/At                      1.0000   5.0000
 CSTAR, M/SEC               1414.3   1414.3
 CF                         0.6863   1.4828
 Ivac, M/SEC                1760.8   2300.3
 Isp, M/SEC                  970.7   2097.2


 MOLE FRACTIONS

 *CO              0.14066  0.13759  0.11009
 *CO2             0.09497  0.09851  0.12627
 *H               0.00217  0.00099  0.00000
 *H2              0.04198  0.04420  0.07170
 H2O              0.19117  0.19096  0.16466
 *NO              0.00071  0.00017  0.00000
 *N2              0.52531  0.52663  0.52728
 *O               0.00008  0.00001  0.00000
 *OH              0.00278  0.00091  0.00000
 *O2              0.00015  0.00002  0.00000

  * THERMODYNAMIC PROPERTIES FITTED TO 20000.K

 NOTE. WEIGHT FRACTION OF FUEL IN TOTAL FUELS AND OF OXIDANT IN TOTAL OXIDANTS



