
 *******************************************************************************

         NASA-GLENN CHEMICAL EQUILIBRIUM PROGRAM CEA2, MAY 21, 2004
                   BY  BONNIE MCBRIDE AND SANFORD GORDON
      REFS: NASA RP-1311, PART I, 1994 AND NASA RP-1311, PART II, 1996

 *******************************************************************************



 problem    o/f=7.65,
     rocket  equilibrium
   p,psia=363.59,
   pi/p=26.74,
 react
   fuel=(CH2)x(cr) wt=100  t,k=298.15
   oxid=N2O wt=100  t,k=292.15
 output  short
     plot p t rho cp gam son pip mach aeat ivac isp m mw
 end





              THEORETICAL ROCKET PERFORMANCE ASSUMING EQUILIBRIUM

           COMPOSITION DURING EXPANSION FROM INFINITE AREA COMBUSTOR

 Pin =   363.6 PSIA
 CASE =                

             REACTANT                    WT FRACTION      ENERGY      TEMP
                                          (SEE NOTE)     KJ/KG-MOL      K  
 FUEL        (CH2)x(cr)                   1.0000000    -25600.000    298.150
 OXIDANT     N2O                          1.0000000     81369.055    292.150

 O/F=    7.65000  %FUEL= 11.560694  R,EQ.RATIO= 1.230515  PHI,EQ.RATIO= 1.230515

                 CHAMBER   THROAT     EXIT
 Pinf/P            1.0000   1.7392   26.740
 P, BAR            25.069   14.414  0.93749
 T, K             3307.61  3117.45  2154.06
 RHO, KG/CU M    2.3796 0 1.4691 0 1.4298-1
 H, KJ/KG         1424.03   861.30 -1375.60
 U, KJ/KG          370.57  -119.82 -2031.27
 G, KJ/KG        -31838.6 -30489.0 -23037.7
 S, KJ/(KG)(K)    10.0564  10.0564  10.0564

 M, (1/n)          26.105   26.419   27.315
 (dLV/dLP)t      -1.02060 -1.01655 -1.00045
 (dLV/dLT)p        1.4026   1.3457   1.0134
 Cp, KJ/(KG)(K)    4.1839   3.9363   1.6927
 GAMMAs            1.1483   1.1471   1.2258
 SON VEL,M/SEC     1099.9   1060.9    896.5
 MACH NUMBER        0.000    1.000    2.639

 PERFORMANCE PARAMETERS

 Ae/At                      1.0000   4.6066
 CSTAR, M/SEC               1608.4   1608.4
 CF                         0.6596   1.4712
 Ivac, M/SEC                1985.7   2643.4
 Isp, M/SEC                 1060.9   2366.3


 MOLE FRACTIONS

 *CO              0.13574  0.12743  0.09757
 *CO2             0.07941  0.09031  0.12756
 *H               0.01379  0.01045  0.00076
 HNO              0.00001  0.00000  0.00000
 HO2              0.00002  0.00001  0.00000
 *H2              0.03425  0.03142  0.02914
 H2O              0.15978  0.17002  0.19523
 *N               0.00001  0.00001  0.00000
 *NO              0.01264  0.00911  0.00012
 NO2              0.00001  0.00000  0.00000
 *N2              0.51822  0.52629  0.54881
 *O               0.00628  0.00410  0.00001
 *OH              0.02844  0.02212  0.00074
 *O2              0.01138  0.00870  0.00003

  * THERMODYNAMIC PROPERTIES FITTED TO 20000.K

 NOTE. WEIGHT FRACTION OF FUEL IN TOTAL FUELS AND OF OXIDANT IN TOTAL OXIDANTS



